.SUBCKT D1N4148 1 0 
D 1 0 D1N4148
.model    D1N4148    D(Is=0.1p Rs=16 CJO=2p Tt=12n Bv=100 Ibv=0.1p)
.ENDS
